7

C          1.00239       -0.00968        0.06187
C          2.33578       -0.00863        0.06101
O          3.10658        0.86117       -0.65418
H          0.45796       -0.73516        0.65839
H          0.42100        0.69680       -0.51903
H          2.94271       -0.70197        0.63110
H          2.52234        1.46199       -1.14820
