8

C          1.07204        0.06263        0.03799
C          2.58410        0.06263        0.03799
H          0.68767       -0.66152       -0.68650
H          0.68767        1.05213       -0.22690
H          0.68767       -0.20272        1.02737
H          2.96847        0.32799       -0.95139
H          2.96847       -0.92687        0.30288
H          2.96847        0.78678        0.76248
