12

C          0.96909       -0.06574       -0.07386
C          2.48988       -0.06430       -0.07765
C          3.03608        0.97636       -1.01090
C          3.82177        0.70475       -2.06031
H          0.59377       -0.83007        0.61424
H          0.57059       -0.28235       -1.07076
H          0.57237        0.90278        0.24916
H          2.85045       -1.06312       -0.35013
H          2.85592        0.14332        0.93436
H          2.77629        2.01226       -0.80111
H          4.11401       -0.31107       -2.30759
H          4.19178        1.50177       -2.69807
