10

C          1.12455        0.00639       -0.02819
O          2.54355        0.05373       -0.14535
C          3.17866       -0.39891        0.97718
C          4.50924       -0.43277        1.05690
H          0.69358        0.38220       -0.96066
H          0.78064        0.64573        0.79209
H          0.78077       -1.02312        0.11946
H          2.54126       -0.72451        1.78862
H          5.12276       -0.09944        0.22651
H          5.00726       -0.79271        1.94976
