7

C          1.04462       -0.08202       -0.02966
C          2.54135       -0.05702       -0.05209
O          3.18846        0.71873       -0.74816
H          0.70959       -0.85649        0.66526
H          0.66808       -0.31415       -1.02836
H          0.66808        0.88578        0.30892
H          3.04537       -0.78725        0.60314
